examples/test_perturbation_outputs/pert_min_loss/pglib_opf_case24_ieee_rts.m
%% MATPOWER Case Format : Version 2
function mpc = pglib_opf_case24_ieee_rts
mpc.version = '2';

%%-----  Power Flow Data  -----%%
%% system MVA base
mpc.baseMVA = 100.0;
%% bus data
%    bus_i    type    Pd    Qd    Gs    Bs    area    Vm    Va    baseKV    zone    Vmax    Vmin
mpc.bus = [
	1	2	108.0	22.0	0.0	0.0	1	1.0	0.0	138.0	1	1.05	0.95				
	2	2	97.0	20.0	0.0	0.0	1	1.0	0.0	138.0	1	1.05	0.95				
	3	1	180.0	37.0	0.0	0.0	1	1.0	0.0	138.0	1	1.05	0.95				
	4	1	74.0	15.0	0.0	0.0	1	1.0	0.0	138.0	1	1.05	0.95				
	5	1	71.0	14.000000000000002	0.0	0.0	1	1.0	0.0	138.0	1	1.05	0.95				
	6	1	136.0	28.000000000000004	0.0	-100.0	2	1.0	0.0	138.0	1	1.05	0.95				
	7	2	125.0	25.0	0.0	0.0	2	1.0	0.0	138.0	1	1.05	0.95				
	8	1	171.0	35.0	0.0	0.0	2	1.0	0.0	138.0	1	1.05	0.95				
	9	1	175.0	36.0	0.0	0.0	1	1.0	0.0	138.0	1	1.05	0.95				
	10	1	195.0	40.0	0.0	0.0	2	1.0	0.0	138.0	1	1.05	0.95				
	11	1	0.0	0.0	0.0	0.0	3	1.0	0.0	230.0	1	1.05	0.95				
	12	1	0.0	0.0	0.0	0.0	3	1.0	0.0	230.0	1	1.05	0.95				
	13	3	265.0	54.0	0.0	0.0	3	1.0	0.0	230.0	1	1.05	0.95				
	14	2	194.0	39.0	0.0	0.0	3	1.0	0.0	230.0	1	1.05	0.95				
	15	2	317.0	64.0	0.0	0.0	4	1.0	0.0	230.0	1	1.05	0.95				
	16	2	100.0	20.0	0.0	0.0	4	1.0	0.0	230.0	1	1.05	0.95				
	17	1	0.0	0.0	0.0	0.0	4	1.0	0.0	230.0	1	1.05	0.95				
	18	2	333.0	68.0	0.0	0.0	4	1.0	0.0	230.0	1	1.05	0.95				
	19	1	181.0	37.0	0.0	0.0	3	1.0	0.0	230.0	1	1.05	0.95				
	20	1	128.0	26.0	0.0	0.0	3	1.0	0.0	230.0	1	1.05	0.95				
	21	2	0.0	0.0	0.0	0.0	4	1.0	0.0	230.0	1	1.05	0.95				
	22	2	0.0	0.0	0.0	0.0	4	1.0	0.0	230.0	1	1.05	0.95				
	23	2	0.0	0.0	0.0	0.0	3	1.0	0.0	230.0	1	1.05	0.95				
	24	1	0.0	0.0	0.0	0.0	4	1.0	0.0	230.0	1	1.05	0.95				
];

%% generator data
%    bus    Pg    Qg    Qmax    Qmin    Vg    mBase    status    Pmax    Pmin    Pc1    Pc2    Qc1min    Qc1max    Qc2min    Qc2max    ramp_agc    ramp_10    ramp_30    ramp_q    apf
mpc.gen = [
	1	18.0	5.0	10.0	0.0	1.0	100.0	1	20.0	16.0															
	1	18.0	5.0	10.0	0.0	1.0	100.0	1	20.0	16.0															
	1	45.6	2.5	30.0	-25.0	1.0	100.0	1	76.0	15.2															
	1	45.6	2.5	30.0	-25.0	1.0	100.0	1	76.0	15.2															
	2	18.0	5.0	10.0	0.0	1.0	100.0	1	20.0	16.0															
	2	18.0	5.0	10.0	0.0	1.0	100.0	1	20.0	16.0															
	2	45.6	2.5	30.0	-25.0	1.0	100.0	1	76.0	15.2															
	2	45.6	2.5	30.0	-25.0	1.0	100.0	1	76.0	15.2															
	7	62.5	30.0	60.0	0.0	1.0	100.0	1	100.0	25.0															
	7	62.5	30.0	60.0	0.0	1.0	100.0	1	100.0	25.0															
	7	62.5	30.0	60.0	0.0	1.0	100.0	1	100.0	25.0															
	13	133.0	40.0	80.0	0.0	1.0	100.0	1	197.0	69.0															
	13	133.0	40.0	80.0	0.0	1.0	100.0	1	197.0	69.0															
	13	133.0	40.0	80.0	0.0	1.0	100.0	1	197.0	69.0															
	14	0.0	75.0	200.0	-50.0	1.0	100.0	1	0.0	0.0															
	15	7.200000000000001	3.0	6.0	0.0	1.0	100.0	1	12.0	2.4															
	15	7.200000000000001	3.0	6.0	0.0	1.0	100.0	1	12.0	2.4															
	15	7.200000000000001	3.0	6.0	0.0	1.0	100.0	1	12.0	2.4															
	15	7.200000000000001	3.0	6.0	0.0	1.0	100.0	1	12.0	2.4															
	15	7.200000000000001	3.0	6.0	0.0	1.0	100.0	1	12.0	2.4															
	15	104.65	15.0	80.0	-50.0	1.0	100.0	1	155.0	54.29999999999999															
	16	104.65	15.0	80.0	-50.0	1.0	100.0	1	155.0	54.29999999999999															
	18	250.0	75.0	200.0	-50.0	1.0	100.0	1	400.0	100.0															
	21	250.0	75.0	200.0	-50.0	1.0	100.0	1	400.0	100.0															
	22	30.0	3.0	16.0	-10.0	1.0	100.0	1	50.0	10.0															
	22	30.0	3.0	16.0	-10.0	1.0	100.0	1	50.0	10.0															
	22	30.0	3.0	16.0	-10.0	1.0	100.0	1	50.0	10.0															
	22	30.0	3.0	16.0	-10.0	1.0	100.0	1	50.0	10.0															
	22	30.0	3.0	16.0	-10.0	1.0	100.0	1	50.0	10.0															
	22	30.0	3.0	16.0	-10.0	1.0	100.0	1	50.0	10.0															
	23	104.65	15.0	80.0	-50.0	1.0	100.0	1	155.0	54.29999999999999															
	23	104.65	15.0	80.0	-50.0	1.0	100.0	1	155.0	54.29999999999999															
	23	245.00000000000003	62.5	150.0	-25.0	1.0	100.0	1	350.0	140.0															
];

%% branch data
%    f_bus    t_bus    r    x    b    rateA    rateB    rateC    ratio    angle    status    angmin    angmax
mpc.branch = [
	1	2	0.0025886282611401953	0.013839204934432267	0.5328903906841963	175.0	193.0	200.0	0	0	1	-29.999999999999996	29.999999999999996								
	1	3	0.05368087944775245	0.2076447202374844	0.2418915864283421	175.0	208.0	220.00000000000003	0	0	1	-29.999999999999996	29.999999999999996								
	1	5	0.02172216134862693	0.08419828594531453	0.0027289878365858024	175.0	208.0	220.00000000000003	0	0	1	-29.999999999999996	29.999999999999996								
	2	4	0.03402148932632927	0.1314183748771318	0.018222868671090728	175.0	208.0	220.00000000000003	0	0	1	-29.999999999999996	29.999999999999996								
	2	6	0.051446031835466484	0.1987452334692279	0.040874412523472264	175.0	208.0	220.00000000000003	0	0	1	-29.999999999999996	29.999999999999996								
	3	9	0.03117101694833859	0.12043347452226798	0.007692033550174977	175.0	208.0	220.00000000000003	0	0	1	-29.999999999999996	29.999999999999996								
	3	24	0.0018356212046369601	0.06696026836157662	0.002728729132989248	400.0	509.99999999999994	600.0	1.03	0.0	1	-29.999999999999996	29.999999999999996								
	4	9	0.026788176307585596	0.10365424934140127	0.002729422234973776	175.0	208.0	220.00000000000003	0	0	1	-29.999999999999996	29.999999999999996								
	5	10	0.023156221362951677	0.08967957657413912	0.010036615856383307	175.0	208.0	220.00000000000003	0	0	1	-29.999999999999996	29.999999999999996								
	6	10	0.014024401013354183	0.06104145764008907	2.4239432344040486	175.0	193.0	200.0	0	0	1	-29.999999999999996	29.999999999999996								
	7	8	0.01587229190193248	0.061293001429205254	0.01805759068925227	175.0	208.0	220.00000000000003	0	0	1	-29.999999999999996	29.999999999999996								
	8	9	0.04174095287698741	0.16139183406107627	0.1560324585512779	175.0	208.0	220.00000000000003	0	0	1	-29.999999999999996	29.999999999999996								
	8	10	0.042604619959526684	0.164731211950024	0.024302156667565574	175.0	208.0	220.00000000000003	0	0	1	-29.999999999999996	29.999999999999996								
	9	11	0.0022306264651484903	0.08136937263132833	0.02703364664560124	400.0	509.99999999999994	600.0	1.03	0.0	1	-29.999999999999996	29.999999999999996								
	9	12	0.0024858561063084944	0.09067970547305954	0.010953908047141287	400.0	509.99999999999994	600.0	1.03	0.0	1	-29.999999999999996	29.999999999999996								
	10	11	0.002489858529525941	0.0908257067405451	0.002728746560514469	400.0	509.99999999999994	600.0	1.02	0.0	1	-29.999999999999996	29.999999999999996								
	10	12	0.0020901744650304198	0.07624592814895872	0.0027287634427509227	400.0	509.99999999999994	600.0	1.02	0.0	1	-29.999999999999996	29.999999999999996								
	11	13	0.006232050686679954	0.04863042830030873	0.0027287317535621696	500.0	600.0	625.0	0	0	1	-29.999999999999996	29.999999999999996								
	11	14	0.005394207927748375	0.04175516506268144	0.16913999431548218	500.0	600.0	625.0	0	0	1	-29.999999999999996	29.999999999999996								
	12	13	0.006115635173387563	0.047722005605201095	0.13781925817492077	500.0	600.0	625.0	0	0	1	-29.999999999999996	29.999999999999996								
	12	23	0.012362236307386787	0.09630580858748253	0.23829569514165871	500.0	600.0	625.0	0	0	1	-29.999999999999996	29.999999999999996								
	13	23	0.011337310156497317	0.08834930880918768	0.18524600161140073	500.0	600.0	625.0	0	0	1	-29.999999999999996	29.999999999999996								
	14	16	0.005002218760906464	0.03891726195554579	0.1143607415266824	500.0	600.0	625.0	0	0	1	-29.999999999999996	29.999999999999996								
	15	16	0.002202625771000773	0.017320648107773857	0.099657688271304	500.0	600.0	625.0	0	0	1	-29.999999999999996	29.999999999999996								
	15	21	0.006382669941262732	0.04964298842304213	0.10102961057098701	500.0	600.0	625.0	0	0	1	-29.999999999999996	29.999999999999996								
	15	21	0.006262650431892567	0.048709503350748376	0.0245107982987289	500.0	600.0	625.0	0	0	1	-29.999999999999996	29.999999999999996								
	15	24	0.006595177403796041	0.05108801600516723	0.1508957796153092	500.0	600.0	625.0	0	0	1	-29.999999999999996	29.999999999999996								
	16	17	0.0033051004969764128	0.025940031171858238	0.0034179328391521616	500.0	600.0	625.0	0	0	1	-29.999999999999996	29.999999999999996								
	16	19	0.0029920283625724056	0.023038618390546522	0.030398075738052692	500.0	600.0	625.0	0	0	1	-29.999999999999996	29.999999999999996								
	17	18	0.0018000819475747487	0.014400655580283766	0.0027289183106919902	500.0	600.0	625.0	0	0	1	-29.999999999999996	29.999999999999996								
	17	22	0.013479146499371604	0.10513734259144183	0.2559959929219454	500.0	600.0	625.0	0	0	1	-29.999999999999996	29.999999999999996								
	18	21	0.0032405139117814177	0.025433124336159376	0.07442857822008417	500.0	600.0	625.0	0	0	1	-29.999999999999996	29.999999999999996								
	18	21	0.0032772435635876804	0.025721396451789356	0.16353670940349782	500.0	600.0	625.0	0	0	1	-29.999999999999996	29.999999999999996								
	19	20	0.00509722387724279	0.039578444217038995	0.022172804723249617	500.0	600.0	625.0	0	0	1	-29.999999999999996	29.999999999999996								
	19	20	0.00514134613229713	0.039921040550232455	0.09277193386072682	500.0	600.0	625.0	0	0	1	-29.999999999999996	29.999999999999996								
	20	23	0.00280677772618423	0.021652285315303162	0.10440943372531997	500.0	600.0	625.0	0	0	1	-29.999999999999996	29.999999999999996								
	20	23	0.002824163919684439	0.021786407379428593	0.07626552720796233	500.0	600.0	625.0	0	0	1	-29.999999999999996	29.999999999999996								
	21	22	0.00842848537374388	0.06568405840531907	0.04904672451708647	500.0	600.0	625.0	0	0	1	-29.999999999999996	29.999999999999996								
];

%%-----  OPF Data  -----%%
%% cost data
%    1    startup    shutdown    n    x1    y1    ...    xn    yn
%    2    startup    shutdown    n    c(n-1)    ...    c0
mpc.gencost = [
	2	1500.0	0.0	3	0.0	130.0	400.6849
	2	1500.0	0.0	3	0.0	130.0	400.6849
	2	1500.0	0.0	3	0.014142	16.0811	212.3076
	2	1500.0	0.0	3	0.014142	16.0811	212.3076
	2	1500.0	0.0	3	0.0	130.0	400.6849
	2	1500.0	0.0	3	0.0	130.0	400.6849
	2	1500.0	0.0	3	0.014142	16.0811	212.3076
	2	1500.0	0.0	3	0.014142	16.0811	212.3076
	2	1500.0	0.0	3	0.052672	43.6615	781.521
	2	1500.0	0.0	3	0.052672	43.6615	781.521
	2	1500.0	0.0	3	0.052672	43.6615	781.521
	2	1500.0	0.0	3	0.007170000000000001	48.5804	832.7575
	2	1500.0	0.0	3	0.007170000000000001	48.5804	832.7575
	2	1500.0	0.0	3	0.007170000000000001	48.5804	832.7575
	2	1500.0	0.0	3	0.0	0.0	0.0
	2	1500.0	0.0	3	0.328412	56.564	86.3852
	2	1500.0	0.0	3	0.328412	56.564	86.3852
	2	1500.0	0.0	3	0.328412	56.564	86.3852
	2	1500.0	0.0	3	0.328412	56.564	86.3852
	2	1500.0	0.0	3	0.328412	56.564	86.3852
	2	1500.0	0.0	3	0.008342	12.3883	382.2391
	2	1500.0	0.0	3	0.008342	12.3883	382.2391
	2	1500.0	0.0	3	0.000213	4.4231	395.3749
	2	1500.0	0.0	3	0.000213	4.4231	395.3749
	2	1500.0	0.0	3	0.0	0.001	0.001
	2	1500.0	0.0	3	0.0	0.001	0.001
	2	1500.0	0.0	3	0.0	0.001	0.001
	2	1500.0	0.0	3	0.0	0.001	0.001
	2	1500.0	0.0	3	0.0	0.001	0.001
	2	1500.0	0.0	3	0.0	0.001	0.001
	2	1500.0	0.0	3	0.008342	12.3883	382.2391
	2	1500.0	0.0	3	0.008342	12.3883	382.2391
	2	1500.0	0.0	3	0.004895000000000001	11.8495	665.1094
];

